<?xml version='1.0' encoding='UTF-8' standalone='yes' ?><hierarchy rotation="3"><node index="0" text="" resource-id="" class="android.widget.FrameLayout" package="app.blearn.mobile" content-desc="" checkable="false" checked="false" clickable="false" enabled="true" focusable="false" focused="false" scrollable="false" long-clickable="false" password="false" selected="false" bounds="[0,0][2306,1080]"><node index="0" text="" resource-id="android:id/navigationBarBackground" class="android.view.View" package="app.blearn.mobile" content-desc="" checkable="false" checked="false" clickable="false" enabled="true" focusable="false" focused="false" scrollable="false" long-clickable="false" password="false" selected="false" bounds="[0,0][130,1080]" /><node index="1" text="" resource-id="" class="android.widget.LinearLayout" package="app.blearn.mobile" content-desc="" checkable="false" checked="false" clickable="false" enabled="true" focusable="false" focused="false" scrollable="false" long-clickable="false" password="false" selected="false" bounds="[130,0][2306,1080]"><node index="0" text="" resource-id="" class="android.widget.FrameLayout" package="app.blearn.mobile" content-desc="" checkable="false" checked="false" clickable="false" enabled="true" focusable="false" focused="false" scrollable="false" long-clickable="false" password="false" selected="false" bounds="[130,94][2306,1080]"><node index="0" text="" resource-id="app.blearn.mobile:id/action_bar_root" class="android.widget.LinearLayout" package="app.blearn.mobile" content-desc="" checkable="false" checked="false" clickable="false" enabled="true" focusable="false" focused="false" scrollable="false" long-clickable="false" password="false" selected="false" bounds="[130,94][2306,1080]"><node index="0" text="" resource-id="android:id/content" class="android.widget.FrameLayout" package="app.blearn.mobile" content-desc="" checkable="false" checked="false" clickable="false" enabled="true" focusable="false" focused="false" scrollable="false" long-clickable="false" password="false" selected="false" bounds="[130,94][2306,1080]"><node index="0" text="" resource-id="" class="android.view.ViewGroup" package="app.blearn.mobile" content-desc="" checkable="false" checked="false" clickable="false" enabled="true" focusable="false" focused="false" scrollable="false" long-clickable="false" password="false" selected="false" bounds="[130,94][2306,1080]"><node index="0" text="" resource-id="" class="android.webkit.WebView" package="app.blearn.mobile" content-desc="" checkable="false" checked="false" clickable="false" enabled="true" focusable="false" focused="false" scrollable="false" long-clickable="false" password="false" selected="false" bounds="[130,94][2306,1080]"><node index="0" text="Blearn | Android Fokus mit System" resource-id="" class="android.webkit.WebView" package="app.blearn.mobile" content-desc="" checkable="false" checked="false" clickable="false" enabled="true" focusable="true" focused="true" scrollable="true" long-clickable="false" password="false" selected="false" bounds="[130,94][2306,1080]"><node index="0" text="" resource-id="" class="android.view.View" package="app.blearn.mobile" content-desc="" checkable="false" checked="false" clickable="false" enabled="true" focusable="true" focused="false" scrollable="false" long-clickable="false" password="false" selected="false" bounds="[1150,990][2306,1080]"><node index="0" text="" resource-id="" class="android.widget.ListView" package="app.blearn.mobile" content-desc="" checkable="false" checked="false" clickable="false" enabled="true" focusable="true" focused="false" scrollable="false" long-clickable="false" password="false" selected="false" bounds="[1150,990][2306,1080]" /></node><node index="1" text="" resource-id="" class="android.view.View" package="app.blearn.mobile" content-desc="" checkable="false" checked="false" clickable="false" enabled="true" focusable="true" focused="false" scrollable="false" long-clickable="false" password="false" selected="false" bounds="[130,94][2306,94]" /><node index="2" text="LEARN-FREISCHALTUNG" resource-id="" class="android.widget.TextView" package="app.blearn.mobile" content-desc="" checkable="false" checked="false" clickable="false" enabled="true" focusable="false" focused="false" scrollable="false" long-clickable="false" password="false" selected="false" bounds="[226,292][616,330]" /><node index="3" text="Vokabel fuer Vokabel" resource-id="" class="android.widget.TextView" package="app.blearn.mobile" content-desc="" checkable="false" checked="false" clickable="false" enabled="true" focusable="false" focused="false" scrollable="false" long-clickable="false" password="false" selected="false" bounds="[226,341][1032,446]" /><node index="4" text="LAUFZEIT" resource-id="" class="android.widget.TextView" package="app.blearn.mobile" content-desc="" checkable="false" checked="false" clickable="false" enabled="true" focusable="false" focused="false" scrollable="false" long-clickable="false" password="false" selected="false" bounds="[1928,198][2085,237]" /><node index="5" text="0:06" resource-id="" class="android.widget.TextView" package="app.blearn.mobile" content-desc="" checkable="false" checked="false" clickable="false" enabled="true" focusable="false" focused="false" scrollable="false" long-clickable="false" password="false" selected="false" bounds="[2104,195][2181,237]" /><node index="6" text="KARTE" resource-id="" class="android.widget.TextView" package="app.blearn.mobile" content-desc="" checkable="false" checked="false" clickable="false" enabled="true" focusable="false" focused="false" scrollable="false" long-clickable="false" password="false" selected="false" bounds="[2077,283][2173,319]" /><node index="7" text="1/1" resource-id="" class="android.widget.TextView" package="app.blearn.mobile" content-desc="" checkable="false" checked="false" clickable="false" enabled="true" focusable="false" focused="false" scrollable="false" long-clickable="false" password="false" selected="false" bounds="[2104,325][2173,399]" /><node index="8" text="WIEDERHOLUNG" resource-id="" class="android.widget.TextView" package="app.blearn.mobile" content-desc="" checkable="false" checked="false" clickable="false" enabled="true" focusable="false" focused="false" scrollable="false" long-clickable="false" password="false" selected="false" bounds="[1945,407][2173,440]" /><node index="9" text="NÄCHSTE NEUE IN 5 KARTEN" resource-id="" class="android.widget.TextView" package="app.blearn.mobile" content-desc="" checkable="false" checked="false" clickable="false" enabled="true" focusable="false" focused="false" scrollable="false" long-clickable="false" password="false" selected="false" bounds="[1755,473][2209,512]" /><node index="10" text="Mix " resource-id="" class="android.widget.TextView" package="app.blearn.mobile" content-desc="" checkable="false" checked="false" clickable="false" enabled="true" focusable="false" focused="false" scrollable="false" long-clickable="false" password="false" selected="false" bounds="[2115,525][2173,564]" /><node index="11" text="1:5" resource-id="" class="android.widget.TextView" package="app.blearn.mobile" content-desc="" checkable="false" checked="false" clickable="false" enabled="true" focusable="false" focused="false" scrollable="false" long-clickable="false" password="false" selected="false" bounds="[2167,525][2209,564]" /><node index="12" text="etw. aufgeben" resource-id="" class="android.widget.TextView" package="app.blearn.mobile" content-desc="" checkable="false" checked="false" clickable="false" enabled="true" focusable="false" focused="false" scrollable="false" long-clickable="false" password="false" selected="false" bounds="[1045,745][1389,814]" /><node index="13" text="" resource-id="" class="android.widget.Button" package="app.blearn.mobile" content-desc="Zurueck zur letzten Karte" checkable="false" checked="false" clickable="true" enabled="false" focusable="false" focused="false" scrollable="false" long-clickable="false" password="false" selected="false" bounds="[0,0][0,0]" /><node index="14" text="Antwort zeigen" resource-id="" class="android.widget.Button" package="app.blearn.mobile" content-desc="" checkable="false" checked="false" clickable="true" enabled="true" focusable="true" focused="false" scrollable="false" long-clickable="false" password="false" selected="false" bounds="[0,0][0,0]" /></node></node></node></node></node></node></node><node index="2" text="" resource-id="android:id/statusBarBackground" class="android.view.View" package="app.blearn.mobile" content-desc="" checkable="false" checked="false" clickable="false" enabled="true" focusable="false" focused="false" scrollable="false" long-clickable="false" password="false" selected="false" bounds="[130,0][2306,94]" /></node></hierarchy>